Circuit: * C:\Users\ash750\Documents\GitHub\Summer_research_ash750\esf_op-amp.asc

Direct Newton iteration failed to find .op point.  (Use ".option noopiter" to skip.)
Starting Gmin stepping
Gmin = 10
Gmin = 1.07374
Gmin = 0.115292
Gmin = 0.0123794
Gmin = 0.00132923
Gmin = 0.000142725
Gmin = 1.5325e-005
Gmin = 1.6455e-006
Gmin = 1.76685e-007
Gmin = 1.89714e-008
vernier = 0.5
vernier = 0.25
vernier = 0.333333
Gmin = 1.1938e-008
vernier = 0.444444
Gmin = 4.60614e-009
vernier = 0.592592
vernier = 0.790123
Gmin = 9.77694e-010
vernier = 1
Gmin = 1.1438e-010
Gmin = 1.22814e-011
Gmin = 1.31871e-012
Gmin = 1.41595e-013
Gmin = 0
Gmin stepping succeeded in finding the operating point.


Date: Thu Jan 29 08:12:24 2026
Total elapsed time: 0.036 seconds.

tnom = 27
temp = 27
method = trap
totiter = 746
traniter = 0
tranpoints = 0
accept = 0
rejected = 0
matrix size = 19
fillins = 16
solver = Normal
Matrix Compiler1:      91 opcodes
Matrix Compiler2:     160 opcodes  0.1/[0.1]/0.2

